LAMMPS (5 Jun 2019)
# LAMMPS input script for thermal conductivity Green-Kubo method for TiO2 Anatase Nanotube

echo		both
units		metal
atom_style	full
boundary    p p p

read_data	50_10_Full.data
  orthogonal box = (-30 -30 0) to (30 30 47.43)
  reading atoms ...
  1440 atoms
velocity	all create 300 219387 mom yes rot yes dist uniform

pair_style buck/coul/long 8 8 ##or 12
pair_coeff 2 2   31120.53 0.154 5.249
pair_coeff 1 2   16957.71 0.194 12.587
pair_coeff 1 1   11782.88 0.234 30.214

kspace_style ewald 1.0e-2  #long-range solver (or pppm )
pair_modify 	shift yes
neigh_modify    delay 0 every 1 check yes

min_style	cg
minimize 	1.0e-6 1.0e-8 1000 10000
Ewald initialization ...
  G vector (1/distance) = 0.207325
  estimated absolute RMS force accuracy = 0.164601
  estimated relative force accuracy = 0.0114309
  KSpace vectors: actual max1d max3d = 722 7 1687
                  kxmax kymax kzmax  = 7 7 6
  update every 1 steps, delay 0 steps, check yes
Step Temp E_pair E_mol TotEng Press
0          300    -17131.92            0   -17076.118     25814.13
Loop time of 0.346061 on 16 procs for 5 steps with 1440 atoms

Minimization stats:
  Stopping criterion = linesearch alpha is zero
  Energy initial, next-to-last, final =
  Force two-norm initial, final = 232.305 39.9147
  Force max component initial, final = 14.5645 1.85185
  Final line search alpha, max atom move = 5.94689e-12 1.10128e-11
  Iterations, force evaluations = 5 72

region 	fl block  INF INF INF INF INF 5  units box
region          hot block INF INF INF INF 5 10   units box

region          1 block   INF INF INF INF 10 12.5    units box
region          2 block   INF INF INF INF 12.5 15    units box
region          3 block   INF INF INF INF 15 17.5   units box
region          4 block   INF INF INF INF 17.5 20  units box
region          5 block   INF INF INF INF 20 22.5  units box
region          6 block   INF INF INF INF 22.5 25   units box
region          7 block   INF INF INF INF 25 27.5  units box
region          8 block   INF INF INF INF 27.5 30  units box
region          9 block   INF INF INF INF 30 32.5  units box
region          10 block  INF INF INF INF 32.5 35  units box

region          cold block INF INF INF INF 35 40 units box
region          fr block   INF INF INF INF 40 INF units box

group 		fl   region fl
144 atoms in group fl
group 	      	fr   region fr
224 atoms in group fr
group           hot  region hot
192 atoms in group hot
group           cold region cold
176 atoms in group cold
group           middle subtract all hot cold fl fr
704 atoms in group middle

group           1 region 1
64 atoms in group 1
group           2 region 2
64 atoms in group 2
group           3 region 3
80 atoms in group 3
group           4 region 4
80 atoms in group 4
group           5 region 5
64 atoms in group 5
group           6 region 6
64 atoms in group 6
group           7 region 7
80 atoms in group 7
group           8 region 8
80 atoms in group 8
group           9 region 9
64 atoms in group 9
group           10 region 10
64 atoms in group 10

fix             npt all npt temp 300 300 0.1 iso 0 0 1 drag 0.5
thermo          1000 #1000
thermo_style    custom step temp pe ke etotal
dump            1 all atom 1000 dump.lammpstrj
timestep		0.001
run             1000000 #20000
Ewald initialization ...
  G vector (1/distance) = 0.207325
  estimated absolute RMS force accuracy = 0.164601
  estimated relative force accuracy = 0.0114309
  KSpace vectors: actual max1d max3d = 722 7 1687
                  kxmax kymax kzmax  = 7 7 6
Step Temp PotEng KinEng TotEng
5          300   -17761.766    55.801605   -17705.964
Averages over the last 501 of 1002 rows, steps 501000 to 1000005:
Temp PotEng KinEng TotEng
299.912 -18380.6 55.7853 -18324.8
Loop time of 4549.78 on 16 procs for 1000000 steps with 1440 atoms

######################################################
unfix           npt

fix		3 fl setforce 0 0 0
fix		4 fr setforce 0 0 0
velocity	fl set 0 0 0 units  box
velocity	fr set 0 0 0 units  box

fix	    5 hot  nvt temp 320 320 0.01
fix	    6 cold nvt temp 280 280 0.01
fix         7 middle nve
fix         8 fl nve
fix         9 fr nve

run             1000000
Ewald initialization ...
  G vector (1/distance) = 0.209789
  estimated absolute RMS force accuracy = 0.159237
  estimated relative force accuracy = 0.0110584
  KSpace vectors: actual max1d max3d = 722 7 1687
                  kxmax kymax kzmax  = 7 7 6
Step Temp PotEng KinEng TotEng
1000005    212.04132   -18373.411    39.440819    -18333.97
Averages over the last 501 of 1002 rows, steps 1501000 to 2000005:
Temp PotEng KinEng TotEng
223.249 -18378.3 41.5256 -18336.7
Loop time of 4230.86 on 16 procs for 1000000 steps with 1440 atoms

######################################################
reset_timestep  0

compute		Thot hot temp
compute 		T1 1 temp
compute 		T2 2 temp
compute 		T3 3 temp
compute 		T4 4 temp
compute 		T5 5 temp
compute 		T6 6 temp
compute 		T7 7 temp
compute 		T8 8 temp
compute 		T9 9 temp
compute 		T10 10 temp
compute 		Tcold cold temp

compute      	myStress middle stress/atom NULL virial
compute     	myKE middle ke/atom
compute     	myPE middle pe/atom

compute         flux  middle heat/flux  myKE myPE myStress

variable        r equal 9.76
variable        t equal 3.77
variable        midvol equal 2*3.14*9.76*3.77*25

variable        Jz equal c_flux[3]/5776.8464

fix             10 all ave/time 10 10000 100000 v_Jz f_5 f_6 c_T1 c_T2 c_T3 c_T4 c_T5 c_T6 c_T7 c_T8 c_T9 c_T10 file Temp.txt

run             1000000
Ewald initialization ...
  G vector (1/distance) = 0.209789
  estimated absolute RMS force accuracy = 0.159237
  estimated relative force accuracy = 0.0110584
  KSpace vectors: actual max1d max3d = 722 7 1687
                  kxmax kymax kzmax  = 7 7 6
Step Temp PotEng KinEng TotEng
0    236.07028   -18378.868    43.910334   -18334.957
Averages over the last 501 of 1001 rows, steps 500000 to 1000000:
Temp PotEng KinEng TotEng
223.114 -18378 41.5005 -18336.5
Loop time of 4947.63 on 16 procs for 1000000 steps with 1440 atoms
